  Page 1                                    Mon Aug 18 22:51:07 2025

  ******************************************************************
  *                           E P A N E T                          *
  *                   Hydraulic and Water Quality                  *
  *                   Analysis for Pipe Networks                   *
  *                          Version 2.3.01                        *
  ******************************************************************
  
  LCPI Network Analysis - Robust
   
      Input Data File ................... temp_validation.inp
      Number of Junctions................ 73
      Number of Reservoirs............... 3
      Number of Tanks ................... 0
      Number of Pipes ................... 195
      Number of Pumps ................... 0
      Number of Valves .................. 0
      Headloss Formula .................. Hazen-Williams
      Nodal Demand Model ................ DDA
      Hydraulic Timestep ................ 1.00 hrs
      Hydraulic Accuracy ................ 0.001000
      Status Check Frequency ............ 2
      Maximum Trials Checked ............ 10
      Damping Limit Threshold ........... 0.000000
      Maximum Trials .................... 200
      Quality Analysis .................. None
      Specific Gravity .................. 1.00
      Relative Kinematic Viscosity ...... 1.00
      Relative Chemical Diffusivity ..... 1.00
      Demand Multiplier ................. 1.00
      Total Duration .................... 0.00 hrs
      Reporting Criteria:
         No Nodes
         No Links
   
  Analysis begun Mon Aug 18 22:51:07 2025

     0:00:00: System ill-conditioned at node A12_1
     0:00:00: Reservoir R1 is emptying
     0:00:00: Reservoir R2 is emptying
     0:00:00: Reservoir R3 is emptying
   
  WARNING: Node A03_1 disconnected at 0:00:00 hrs
  WARNING: Node A03_3 disconnected at 0:00:00 hrs
  WARNING: Node A12_1 disconnected at 0:00:00 hrs
  WARNING: Node A12_3 disconnected at 0:00:00 hrs
  Error 110: cannot solve network hydraulic equations